test4_trans.m
%	100 MVA base
%

% D. Trudnowski, 7/97

% The following bus solution is within one iteration of the actual
%      1   2       3       4      5      6      
%      bus volt    angle   p      q    type 
bus = [ 1  1.0300  0.00       7.00   0.00   2 ;
	    2  1.0100  0.00       7.00   0.00   2 ;
	    3  1.0300  0.00       0.00   0.00   3 ;
        4  1.0100  0.00       7.00   0.00   2 ;
        5  1.0000  0.00       0.00   0.00   1 ;
        6  1.0000  0.00       0.00   0.00   1 ;
        7  1.0000  0.00      -9.67  -1.00   1 ;
        8  1.0000  0.00       0.00   0.00   1 ;
        9  1.0000  0.00     -17.67  -1.00   1 ;
       10  1.0000  0.00       0.00   0.00   1 ;
       11  1.0000  0.00       0.00   0.00   1 ];
        

% line data format
% line: from bus, to bus, R, X,G,B/2,K

line = [...
1   5   0.0     0.15/9   0  0.00    1.1 ;
5   6   0.0025  0.025    0  0.04375/2 0 ;
2   6   0.0     0.15/9   0  0.00    1.0 ;  
6   7   0.001   0.01     0  0.0175/2  0 ;
7   8   0.011   0.110    0  0.1925/2  0 ;
7   8   0.011   0.110    0  0.1925/2  0 ;
8   9   0.011   0.110    0  0.1925/2  0 ;
8   9   0.011   0.110    0  0.1925/2  0 ;
9  10   0.001   0.01     0  0.0175/2  0 ;
4  10   0.0     0.15/9   0  0.00    1.0 ;
10 11   0.0025  0.025    0  0.04375/2 0 ;
3  11   0.0     0.15/9   0  0.00    1.0 ;
7  0    0.0     0.0      0  2.10    0   ;
9  0    0.0     0.0      0  3.60    0];